OPT_V8/Brussels_test_1203-1157/powerflow_results_t3.txt
Pandapower Network Debug Info
==================================================

BUS:
       vm_pu  va_degree      p_mw    q_mvar
0   0.992785   0.097432  0.001090  0.000955
1   0.988259   0.159588  0.001635  0.001910
2   0.984202   0.221637  0.002181  0.002865
3   0.988933   0.163448  0.002726  0.003819
4   0.989148   0.189563  0.003271  0.004774
5   0.991679   0.121218  0.003816  0.005729
6   0.989873   0.117902  0.001308  0.000955
7   0.997432   0.015407  0.001962  0.001910
8   0.997755   0.032458  0.002399  0.002865
9   0.999882   0.000323  0.010903  0.009549
10  0.999868   0.000314  0.011993  0.008594
11  0.999858   0.000322  0.013083  0.010504
12  0.999765   0.000609  0.010903  0.005729
13  0.999736   0.000638  0.013083  0.009549
14  0.999746   0.000656  0.014173  0.011458
15  0.999927   0.000296  0.000000  0.000000
16  0.999927   0.000302  0.000000  0.000000
17  0.999770   0.000664  0.000000  0.000000
18  0.999770   0.000673  0.000000  0.000000
19  1.000000   0.000000 -0.043758 -0.043294
20  1.000000   0.000006  0.000000  0.000000
21  1.000000   0.000000 -0.051069 -0.048073
22  1.000000   0.000007  0.000000  0.000000
--------------------------------------------------

LINE:
    p_from_mw  q_from_mvar   p_to_mw  q_to_mvar         pl_mw       ql_mvar  i_from_ka   i_to_ka      i_ka  vm_from_pu  va_from_degree  vm_to_pu  va_to_degree  loading_percent
0    0.043748     0.039294 -0.043744  -0.039291  3.382241e-06  2.637189e-06   0.002263  0.002263  0.002263    1.000000        0.000006  0.999927      0.000296         0.984064
1    0.051059     0.044073 -0.051047  -0.044064  1.223756e-05  9.541824e-06   0.002596  0.002596  0.002596    1.000000        0.000007  0.999770      0.000664         1.128762
2    0.035981     0.028648 -0.035979  -0.028647  1.635979e-06  1.275600e-06   0.001770  0.001770  0.001770    0.999927        0.000296  0.999882      0.000323         0.769733
3    0.010903     0.005729 -0.010903  -0.005729  5.248314e-08  4.092197e-08   0.000474  0.000474  0.000474    0.999770        0.000664  0.999765      0.000609         0.206160
4    0.027257     0.021008 -0.027257  -0.021007  6.478618e-07  5.051485e-07   0.001325  0.001325  0.001325    0.999770        0.000664  0.999746      0.000656         0.576036
5    0.007753     0.009643 -0.007682  -0.009588  7.162360e-05  5.584610e-05   0.017861  0.017861  0.017861    0.999927        0.000302  0.992785      0.097432         7.765803
6    0.005183     0.006730 -0.005127  -0.006686  5.599829e-05  4.366279e-05   0.012263  0.012263  0.012263    0.999770        0.000673  0.991679      0.121218         5.331620
7    0.001968     0.001914 -0.001962  -0.001910  5.092125e-06  3.970413e-06   0.003963  0.003963  0.003963    0.999770        0.000673  0.997432      0.015407         1.722876
8    0.005727     0.007684 -0.005711  -0.007671  1.579750e-05  1.231757e-05   0.013835  0.013835  0.013835    0.999770        0.000673  0.997755      0.032458         6.015343
9   -0.025076    -0.019098  0.025077   0.019098  3.436771e-07  2.679707e-07   0.001213  0.001213  0.001213    0.999868        0.000314  0.999882      0.000323         0.527557
10  -0.013083    -0.010504  0.013083   0.010504  1.377091e-07  1.073741e-07   0.000646  0.000646  0.000646    0.999858        0.000322  0.999868      0.000314         0.280813
11   0.013083     0.009549 -0.013083  -0.009549  1.283733e-07  1.000948e-07   0.000624  0.000624  0.000624    0.999746        0.000656  0.999736      0.000638         0.271128
12  -0.003828    -0.004784  0.003851   0.004802  2.273959e-05  1.773043e-05   0.008948  0.008948  0.008948    0.988259        0.159588  0.992785      0.097432         3.890627
13  -0.002726    -0.003819  0.002741   0.003831  1.503179e-05  1.172054e-05   0.006849  0.006849  0.006849    0.988933        0.163448  0.992785      0.097432         2.977634
14  -0.002181    -0.002865  0.002193   0.002874  1.210364e-05  9.437404e-06   0.005280  0.005280  0.005280    0.984202        0.221637  0.988259      0.159588         2.295528
15   0.003312     0.004807 -0.003271  -0.004774  4.165141e-05  3.247629e-05   0.008445  0.008445  0.008445    0.997755        0.032458  0.989148      0.189563         3.671682
16  -0.001308    -0.000955  0.001311   0.000957  2.331031e-06  1.817543e-06   0.002362  0.002362  0.002362    0.989873        0.117902  0.991679      0.121218         1.026859
--------------------------------------------------

TRAFO:
    p_hv_mw  q_hv_mvar   p_lv_mw  q_lv_mvar    pl_mw   ql_mvar   i_hv_ka   i_lv_ka  vm_hv_pu  va_hv_degree  vm_lv_pu  va_lv_degree  loading_percent
0  0.007763   0.010643 -0.007753  -0.009643  0.00001  0.001000  0.000507  0.017861  0.999927      0.000296  0.999927      0.000302         0.131748
1  0.012887   0.017327 -0.012877  -0.016327  0.00001  0.000999  0.000831  0.030020  0.999770      0.000664  0.999770      0.000673         0.215986
2  0.043758   0.043294 -0.043748  -0.039294  0.00001  0.004000  0.000508  0.002263  1.000000      0.000000  1.000000      0.000006         0.153889
3  0.051069   0.048073 -0.051059  -0.044073  0.00001  0.004000  0.000578  0.002596  1.000000      0.000000  1.000000      0.000007         0.175341
--------------------------------------------------
